<?xml version="1.0" encoding="UTF-8"?>

<!-- generated on Wed Sep 27 23:10:48 2017 by SUMO duarouter Version 0.28.0
<?xml version="1.0" encoding="UTF-8"?>

<configuration xmlns:xsi="http://www.w3.org/2001/XMLSchema-instance" xsi:noNamespaceSchemaLocation="http://sumo.dlr.de/xsd/duarouterConfiguration.xsd">

    <input>
        <net-file value="/home/ss/Dropbox/Wriju/Codes/10.4.1.72_trajectory_clone/Vis/sumo/map.net.xml"/>
        <weight-files value="/home/ss/Dropbox/Wriju/Codes/10.4.1.72_trajectory_clone/Vis/weights"/>
        <trip-files value="/home/ss/Dropbox/Wriju/Codes/10.4.1.72_trajectory_clone/Vis/temp_trip"/>
    </input>

    <output>
        <output-file value="/home/ss/Dropbox/Wriju/Codes/10.4.1.72_trajectory_clone/Vis/result_here.rou.xml"/>
    </output>

</configuration>
-->

<routes xmlns:xsi="http://www.w3.org/2001/XMLSchema-instance" xsi:noNamespaceSchemaLocation="http://sumo.dlr.de/xsd/routes_file.xsd">
    <vehicle id="0" depart="0.00">
        <route edges="102961770#0 102961725 52152366#1 -103230546#5 -103230546#4 -103230546#3 -103230546#2 -103230546#1 -103230546#0 -103230523#0 -103230488#1 -103230503#3 -103230503#2"/>
    </vehicle>
</routes>
