<?xml version="1.0" encoding="UTF-8"?>

<!-- generated on Sun Oct  8 08:06:12 2017 by SUMO duarouter Version 0.19.0
<?xml version="1.0" encoding="UTF-8"?>

<configuration xmlns:xsi="http://www.w3.org/2001/XMLSchema-instance" xsi:noNamespaceSchemaLocation="http://sumo-sim.org/xsd/duarouterConfiguration.xsd">

    <input>
        <net-file value="/home/ubuntu/Desktop/trajectory_clone/Vis/sumo/map.net.xml"/>
        <weight-files value="/home/ubuntu/Desktop/trajectory_clone/Vis/weights"/>
        <trip-files value="/home/ubuntu/Desktop/trajectory_clone/Vis/temp_trip"/>
    </input>

    <output>
        <output-file value="/home/ubuntu/Desktop/trajectory_clone/Vis/result_here.rou.xml"/>
    </output>

</configuration>
-->

<routes xmlns:xsi="http://www.w3.org/2001/XMLSchema-instance" xsi:noNamespaceSchemaLocation="http://sumo-sim.org/xsd/routes_file.xsd">
    <vehicle id="0" depart="0.00">
        <route edges="102961770#0 102961725 52152366#1 -103230546#5 -103230546#4 -103230546#3 -103230546#2 -103230546#1 -103230546#0 103230523#1 -103594699#5 -103230480#0 -103230589#1 103230489 103230562#2 -103230570#2 -103230570#1 -103230570#0 -52152298#8 -52152298#7 -103230598#2 103230541 103230584#1 103230522 103230496#1"/>
    </vehicle>
</routes>
